<configuration>
    <input>
        <net-file value="grid.net.xml"/>
        <route-files value="grid.routes.xml"/>
    </input>
    <time>
        <begin value="0"/>
        <end value="10000"/>
    </time>
</configuration>
