<?xml version="1.0" encoding="UTF-8"?>

<!-- generated on 2024-03-18 12:51:06.101120 by randomTrips.py v1_19_0+0000-baa66a0f364
<configuration>
    <net-file value="grid.net.xml"/>
    <output-trip-file value="grid.trips.xml"/>
    <length value="True"/>
    <end value="100.0"/>
</configuration>
-->

<routes xmlns:xsi="http://www.w3.org/2001/XMLSchema-instance" xsi:noNamespaceSchemaLocation="http://sumo.dlr.de/xsd/routes_file.xsd">
    <trip id="0" depart="0.00" from="G3G2" to="A3A2"/>
    <trip id="1" depart="1.00" from="C8C7" to="C3D3"/>
    <trip id="2" depart="2.00" from="H2H3" to="G6G7"/>
    <trip id="3" depart="3.00" from="I7H7" to="B1A1"/>
    <trip id="4" depart="4.00" from="E2E3" to="A3B3"/>
    <trip id="5" depart="5.00" from="C3C2" to="F0F1"/>
    <trip id="6" depart="6.00" from="A3A4" to="C1C2"/>
    <trip id="7" depart="7.00" from="G4G3" to="F4F3"/>
    <trip id="8" depart="8.00" from="C3C4" to="F8F7"/>
    <trip id="9" depart="9.00" from="H9G9" to="A1A0"/>
    <trip id="10" depart="10.00" from="H8I8" to="G8G9"/>
    <trip id="11" depart="11.00" from="D4E4" to="B7A7"/>
    <trip id="12" depart="12.00" from="J4J3" to="D4D5"/>
    <trip id="13" depart="13.00" from="B1B2" to="B1C1"/>
    <trip id="14" depart="14.00" from="I3H3" to="F9G9"/>
    <trip id="15" depart="15.00" from="H8I8" to="H1I1"/>
    <trip id="16" depart="16.00" from="F3F4" to="J6J5"/>
    <trip id="17" depart="17.00" from="D8D7" to="F4G4"/>
    <trip id="18" depart="18.00" from="I1I0" to="G1G0"/>
    <trip id="19" depart="19.00" from="I4I3" to="F7E7"/>
    <trip id="20" depart="20.00" from="G9F9" to="A5B5"/>
    <trip id="21" depart="21.00" from="C4B4" to="D0C0"/>
    <trip id="22" depart="22.00" from="B0A0" to="C4C5"/>
    <trip id="23" depart="23.00" from="B2B1" to="C8C9"/>
    <trip id="24" depart="24.00" from="G2H2" to="D7C7"/>
    <trip id="25" depart="25.00" from="D7D8" to="C2C3"/>
    <trip id="26" depart="26.00" from="C7C8" to="J2I2"/>
    <trip id="27" depart="27.00" from="G4F4" to="G0G1"/>
    <trip id="28" depart="28.00" from="B8B9" to="H1I1"/>
    <trip id="29" depart="29.00" from="B7C7" to="D8D7"/>
    <trip id="30" depart="30.00" from="J8J7" to="G3G2"/>
    <trip id="31" depart="31.00" from="F5F4" to="G7G6"/>
    <trip id="32" depart="32.00" from="I2I3" to="H6G6"/>
    <trip id="33" depart="33.00" from="C4C3" to="A4A3"/>
    <trip id="34" depart="34.00" from="D2D3" to="C7D7"/>
    <trip id="35" depart="35.00" from="C2C3" to="J2J3"/>
    <trip id="36" depart="36.00" from="I5I6" to="D2D3"/>
    <trip id="37" depart="37.00" from="G4H4" to="E0D0"/>
    <trip id="38" depart="38.00" from="I9H9" to="E6D6"/>
    <trip id="39" depart="39.00" from="C7C8" to="C5D5"/>
    <trip id="40" depart="40.00" from="F5G5" to="C7C6"/>
    <trip id="41" depart="41.00" from="F7G7" to="I7I8"/>
    <trip id="42" depart="42.00" from="E0E1" to="C3C2"/>
    <trip id="43" depart="43.00" from="J9J8" to="F1E1"/>
    <trip id="44" depart="44.00" from="B1B0" to="A5B5"/>
    <trip id="45" depart="45.00" from="B3A3" to="G2F2"/>
    <trip id="46" depart="46.00" from="H7H8" to="E2E3"/>
    <trip id="47" depart="47.00" from="A7B7" to="D8D9"/>
    <trip id="48" depart="48.00" from="J9I9" to="F2G2"/>
    <trip id="49" depart="49.00" from="J6I6" to="I4I3"/>
    <trip id="50" depart="50.00" from="A1B1" to="H1G1"/>
    <trip id="51" depart="51.00" from="G7F7" to="F3F4"/>
    <trip id="52" depart="52.00" from="C7C8" to="G3G2"/>
    <trip id="53" depart="53.00" from="B3A3" to="E3F3"/>
    <trip id="54" depart="54.00" from="E5E6" to="J4I4"/>
    <trip id="55" depart="55.00" from="I5I6" to="C7C6"/>
    <trip id="56" depart="56.00" from="F0E0" to="B9B8"/>
    <trip id="57" depart="57.00" from="I8J8" to="I5H5"/>
    <trip id="58" depart="58.00" from="D1C1" to="G3G2"/>
    <trip id="59" depart="59.00" from="G0G1" to="B6C6"/>
    <trip id="60" depart="60.00" from="H4I4" to="F3G3"/>
    <trip id="61" depart="61.00" from="H6H5" to="F2G2"/>
    <trip id="62" depart="62.00" from="A0A1" to="D3D2"/>
    <trip id="63" depart="63.00" from="A2A3" to="J1I1"/>
    <trip id="64" depart="64.00" from="I5J5" to="I1I2"/>
    <trip id="65" depart="65.00" from="D1E1" to="A7A6"/>
    <trip id="66" depart="66.00" from="I5J5" to="J3J2"/>
    <trip id="67" depart="67.00" from="B0C0" to="E8E7"/>
    <trip id="68" depart="68.00" from="A8A9" to="H4I4"/>
    <trip id="69" depart="69.00" from="H5G5" to="B4B5"/>
    <trip id="70" depart="70.00" from="E7E8" to="F4F5"/>
    <trip id="71" depart="71.00" from="C7C8" to="I5I4"/>
    <trip id="72" depart="72.00" from="E2F2" to="C2D2"/>
    <trip id="73" depart="73.00" from="F3G3" to="H1I1"/>
    <trip id="74" depart="74.00" from="C1D1" to="D2D1"/>
    <trip id="75" depart="75.00" from="J9I9" to="G4G3"/>
    <trip id="76" depart="76.00" from="E4D4" to="F1G1"/>
    <trip id="77" depart="77.00" from="B4A4" to="C3D3"/>
    <trip id="78" depart="78.00" from="D4D5" to="F8E8"/>
    <trip id="79" depart="79.00" from="C4C3" to="C3C4"/>
    <trip id="80" depart="80.00" from="A8B8" to="G2G3"/>
    <trip id="81" depart="81.00" from="C4C3" to="I8I7"/>
    <trip id="82" depart="82.00" from="I4H4" to="A8B8"/>
    <trip id="83" depart="83.00" from="C5B5" to="G5H5"/>
    <trip id="84" depart="84.00" from="C2D2" to="B5A5"/>
    <trip id="85" depart="85.00" from="J1J2" to="F6F7"/>
    <trip id="86" depart="86.00" from="E7E6" to="H6I6"/>
    <trip id="87" depart="87.00" from="H8I8" to="C0D0"/>
    <trip id="88" depart="88.00" from="B1C1" to="E3E4"/>
    <trip id="89" depart="89.00" from="E2F2" to="E6F6"/>
    <trip id="90" depart="90.00" from="H1I1" to="G6G5"/>
    <trip id="91" depart="91.00" from="J7J8" to="B2A2"/>
    <trip id="92" depart="92.00" from="E0F0" to="D4E4"/>
    <trip id="93" depart="93.00" from="I4I3" to="C6B6"/>
    <trip id="94" depart="94.00" from="C0D0" to="E5D5"/>
    <trip id="95" depart="95.00" from="E2E3" to="C8D8"/>
    <trip id="96" depart="96.00" from="C6B6" to="J0I0"/>
    <trip id="97" depart="97.00" from="E4E5" to="I4I3"/>
    <trip id="98" depart="98.00" from="F4G4" to="A6A7"/>
    <trip id="99" depart="99.00" from="J9J8" to="I2H2"/>
</routes>
